PDE  1999 01 01 00 00 00.00  67000 67000 -25000 4.2 4.2 hom_hollywood
event name:       hom_hollywood
time shift:       0.0000
half duration:    0.02
latorUTM:        820.0
longorUTM:      1320.0
depth:           0.720
Mrr:       -0.002e+25
Mtt:       -0.064e+25
Mpp:        0.066e+25
Mrt:       -0.090e+25
Mrp:       -0.002e+25
Mtp:        0.188e+25
