 PDEW2012  7 19  7 36 35.50  37.2500   71.3800  98.4 5.5 5.6 AFGHANISTAN-TAJIKISTAN B
event name:      201207190736A
time shift:      1.73
half duration:   1.6
latitude:        37.12
longitude:       71.19
depth:   110.66
mrr:     3.43e+24
mtt:     -3.63e+24
mpp:     2.09e+23
mrt:     1.19e+24
mrp:     -3.1e+23
mtp:     3.97e+23

