PDE  1999 01 01 00 00 00.00  1000000 1000000 -1000000 1 1 dynamic_rupture
event name:       dynamic_rupture
time shift:       0.0
half duration:    0.0
latorUTM:        1000000.0
longorUTM:       1000000.0
depth:          -1000000.0
Mrr:       0.0
Mtt:       0.0
Mpp:       0.0
Mrt:       0.0
Mrp:       0.0
Mtp:       0.0
