
# forward or adjoint simulation
SIMULATION_TYPE                 = 1   # 1 = forward, 2 = adjoint, 3 = both simultaneously
SAVE_FORWARD                    = .false.

# UTM projection parameters
UTM_PROJECTION_ZONE             = 11
SUPPRESS_UTM_PROJECTION         = .true.

# number of MPI processors along xi and eta (can be different)
NPROC_XI                        = 2 
NPROC_ETA                       = 2

# time step parameters
NSTEP                           = 7500
DT                              = 0.0065d0

# parameters describing the model
OCEANS                          = .false.
TOPOGRAPHY                      = .false.
ATTENUATION                     = .false.
USE_OLSEN_ATTENUATION           = .false.
ANISOTROPY                      = .false.

# absorbing boundary conditions for a regional simulation
ABSORBING_CONDITIONS            = .false.

# save AVS or OpenDX movies
MOVIE_SURFACE                   = .false.
MOVIE_VOLUME                    = .false.
NTSTEP_BETWEEN_FRAMES           = 200
CREATE_SHAKEMAP                 = .false.
SAVE_DISPLACEMENT               = .false.
USE_HIGHRES_FOR_MOVIES          = .false.
HDUR_MOVIE                      = 0.0

# save AVS or OpenDX mesh files to check the mesh
SAVE_MESH_FILES                 = .true.

# path to store the local database file on each node
LOCAL_PATH                      = /scratch/lustre/dpeter/SPECFEM3D_SESAME/DATABASES_MPI.block

# interval at which we output time step info and max of norm of displacement
NTSTEP_BETWEEN_OUTPUT_INFO      = 500

# interval in time steps for writing of seismograms
NTSTEP_BETWEEN_OUTPUT_SEISMOS   = 10000

# print source time function
PRINT_SOURCE_TIME_FUNCTION      = .false.


