# simulation input parameters
#
# forward or adjoint simulation
# 1 = forward, 2 = adjoint, 3 = both simultaneously
SIMULATION_TYPE                 = 1   
# 0 = earthquake simulation,  1/2/3 = three steps in noise simulation
NOISE_TOMOGRAPHY                = 0   
SAVE_FORWARD                    = .false.

# UTM projection parameters
UTM_PROJECTION_ZONE             = 11
SUPPRESS_UTM_PROJECTION         = .true.

# number of MPI processors
NPROC                           = 4

# time step parameters
NSTEP                           = 4000
DT                              = 0.01

# models:
# available options are:
#   default (model parameters described by mesh properties)
# 1D models available are: 
#   1d_prem,1d_socal,1d_cascadia
# 3D models available are: 
#   aniso,external,gll,salton_trough,tomo
MODEL                           = default

# parameters describing the model
OCEANS                          = .false.
TOPOGRAPHY                      = .false.
ATTENUATION                     = .false.
USE_OLSEN_ATTENUATION           = .false.
ANISOTROPY                      = .false.
GRAVITY                         = .false.

# absorbing boundary conditions for a regional simulation
ABSORBING_CONDITIONS            = .true.

# save AVS or OpenDX movies
MOVIE_SURFACE                   = .false.
MOVIE_VOLUME                    = .false.
NTSTEP_BETWEEN_FRAMES           = 200
CREATE_SHAKEMAP                 = .false.
SAVE_DISPLACEMENT               = .false.
USE_HIGHRES_FOR_MOVIES          = .false.
HDUR_MOVIE                      = 0.0

# save AVS or OpenDX mesh files to check the mesh
SAVE_MESH_FILES                 = .true.

# path to store the local database file on each node
LOCAL_PATH                      = ../in_out_files/DATABASES_MPI

# interval at which we output time step info and max of norm of displacement
NTSTEP_BETWEEN_OUTPUT_INFO      = 500

# interval in time steps for writing of seismograms
NTSTEP_BETWEEN_OUTPUT_SEISMOS   = 10000

# interval in time steps for reading adjoint traces
NTSTEP_BETWEEN_READ_ADJSRC      = 0      # 0 = read the whole adjoint sources at the same time

# use a force source located exactly at a grid point instead of a CMTSOLUTION source
# this can be useful e.g. for oil industry foothills simulations or asteroid simulations
# in which the source is a vertical force, normal force, impact etc.
USE_FORCE_POINT_SOURCE          = .false.
FACTOR_FORCE_SOURCE             = 1.d15
# direction in comp E/N/Z = 1/2/3
COMPONENT_FORCE_SOURCE          = 3

# print source time function
PRINT_SOURCE_TIME_FUNCTION      = .false.

# set to true to use GPUs 
GPU_MODE                        = .false.

