PDE 2003  7  7 23 59 17.78  34.0745 -118.3792   6.4 4.2 4.2 FICTITIOUS
event name:     9903873
time shift:     0.5447953452769341E+01
half duration:   0
latitude:       34.2438031511517800
longitude:     -118.7368191131799000
depth:       20.4269026324769500
Mrr:     0.3741044075662543E+24
Mtt:    -0.3117105402966140E+24
Mpp:    -0.6239386726964047E+23
Mrt:    -0.8591611017176262E+23
Mrp:    -0.1301384990281119E+23
Mtp:     0.1473147100031584E+24
PDE 2003  7  7 23 59 17.78  34.0745 -118.3792   6.4 4.2 4.2 FICTITIOUS
event name:     9903873
time shift:     0.5020661887758161E+01
half duration:   0
latitude:       34.2373686758751600
longitude:     -118.7239386070113000
depth:       20.4269026324769500
Mrr:     0.4988058767550058E+24
Mtt:    -0.4156140537288186E+24
Mpp:    -0.8319182302618730E+23
Mrt:    -0.1145548135623502E+24
Mrp:    -0.1735179987041493E+23
Mtp:     0.1964196133375445E+24
PDE 2003  7  7 23 59 17.78  34.0745 -118.3792   6.4 4.2 4.2 FICTITIOUS
event name:     9903873
time shift:     0.4599210132417263E+01
half duration:   0
latitude:       34.2309327808731100
longitude:     -118.7110600237053000
depth:       20.4269026324769500
Mrr:     0.6431970516051390E+24
Mtt:    -0.5359233850713713E+24
Mpp:    -0.1072736665337679E+24
Mrt:    -0.1477154174882937E+24
Mrp:    -0.2237468930658767E+23
Mtp:     0.2532779224615705E+24
PDE 2003  7  7 23 59 17.78  34.0745 -118.3792   6.4 4.2 4.2 FICTITIOUS
event name:     9903873
time shift:     0.4185136269172839E+01
half duration:   0
latitude:       34.2244954671005500
longitude:     -118.6981833632119000
depth:       20.4269026324769500
Mrr:     0.3806676427867150E+24
Mtt:    -0.3171791462667300E+24
Mpp:    -0.6348849651998505E+23
Mrt:    -0.8742341035021457E+23
Mrp:    -0.1324216305900087E+23
Mtp:     0.1498991785997050E+24
PDE 2003  7  7 23 59 17.78  34.0745 -118.3792   6.4 4.2 4.2 FICTITIOUS
event name:     9903873
time shift:     0.3780525315879512E+01
half duration:   0
latitude:       34.2180567355125400
longitude:     -118.6853086254802000
depth:       20.4269026324769500
Mrr:     0.8991632252031024E+24
Mtt:    -0.7491990179058965E+24
Mpp:    -0.1499642072972061E+24
Mrt:    -0.2065001244479207E+24
Mrp:    -0.3127890239798479E+23
Mtp:     0.3540721977268893E+24
PDE 2003  7  7 23 59 17.78  34.0745 -118.3792   6.4 4.2 4.2 FICTITIOUS
event name:     9903873
time shift:     0.3388246744085945E+01
half duration:   0
latitude:       34.2116165870642600
longitude:     -118.6724358104587000
depth:       20.4269026324769500
Mrr:     0.7482088151325086E+24
Mtt:    -0.6234210805932279E+24
Mpp:    -0.1247877345392810E+24
Mrt:    -0.1718322203435253E+24
Mrp:    -0.2602769980562239E+23
Mtp:     0.2946294200063167E+24
PDE 2003  7  7 23 59 17.78  34.0745 -118.3792   6.4 4.2 4.2 FICTITIOUS
event name:     9903873
time shift:     0.3012302586940585E+01
half duration:   0
latitude:       34.2051750227110300
longitude:     -118.6595649180953000
depth:       20.4269026324769500
Mrr:     0.2690926440388847E+24
Mtt:    -0.2242128447747573E+24
Mpp:    -0.4487979926412738E+23
Mrt:    -0.6179930731653102E+23
Mrp:    -0.9360839403776470E+22
Mtp:     0.1059632124584121E+24
PDE 2003  7  7 23 59 17.78  34.0745 -118.3792   6.4 4.2 4.2 FICTITIOUS
event name:     9903873
time shift:     0.2658323772492578E+01
half duration:   0
latitude:       34.1987320434082800
longitude:     -118.6466959483371000
depth:       20.4269026324769500
Mrr:     0.2034602918342787E+24
Mtt:    -0.1695267850735970E+24
Mpp:    -0.3393350676068167E+23
Mrt:    -0.4672630553201125E+23
Mrp:    -0.7077707841879771E+22
Mtp:     0.8011852649294574E+23
PDE 2003  7  7 23 59 17.78  34.0745 -118.3792   6.4 4.2 4.2 FICTITIOUS
event name:     9903873
time shift:     0.2334226956787338E+01
half duration:   0
latitude:       34.1922876501115800
longitude:     -118.6338289011305000
depth:       20.4269026324769500
Mrr:     0.3084720553616483E+24
Mtt:    -0.2570244805954537E+24
Mpp:    -0.5144757476619479E+23
Mrt:    -0.7084310838724287E+23
Mrp:    -0.1073071834091449E+23
Mtp:     0.1214700240376920E+24
PDE 2003  7  7 23 59 17.78  34.0745 -118.3792   6.4 4.2 4.2 FICTITIOUS
event name:     9903873
time shift:     0.2050928033235685E+01
half duration:   0
latitude:       34.1858418437766100
longitude:     -118.6209637764213000
depth:       20.4269026324769500
Mrr:     0.2625294088184241E+24
Mtt:    -0.2187442388046414E+24
Mpp:    -0.4378517001378279E+23
Mrt:    -0.6029200713807902E+23
Mrp:    -0.9132526247586802E+22
Mtp:     0.1033787438618655E+24
PDE 2003  7  7 23 59 17.78  34.0745 -118.3792   6.4 4.2 4.2 FICTITIOUS
event name:     9903873
time shift:     0.1822686111181331E+01
half duration:   0
latitude:       34.1793946253591700
longitude:     -118.6081005741545000
depth:       20.4269026324769500
Mrr:     0.5578749937391512E+24
Mtt:    -0.4648315074598629E+24
Mpp:    -0.9304348627928842E+23
Mrt:    -0.1281205151684179E+24
Mrp:    -0.1940661827612195E+23
Mtp:     0.2196798307064642E+24
PDE 2003  7  7 23 59 17.78  34.0745 -118.3792   6.4 4.2 4.2 FICTITIOUS
event name:     9903873
time shift:     0.1666079863445703E+01
half duration:   0
latitude:       34.1729459958152200
longitude:     -118.5952392942745000
depth:       20.4269026324769500
Mrr:     0.7416455799120482E+24
Mtt:    -0.6179524746231117E+24
Mpp:    -0.1236931052889364E+24
Mrt:    -0.1703249201650733E+24
Mrp:    -0.2579938664943271E+23
Mtp:     0.2920449514097700E+24
PDE 2003  7  7 23 59 17.78  34.0745 -118.3792   6.4 4.2 4.2 FICTITIOUS
event name:     9903873
time shift:     0.1596373422368947E+01
half duration:   0
latitude:       34.1664959561007900
longitude:     -118.5823799367250000
depth:       20.4269026324769500
Mrr:     0.5316220528573089E+24
Mtt:    -0.4429570835793987E+24
Mpp:    -0.8866496927791016E+23
Mrt:    -0.1220913144546101E+24
Mrp:    -0.1849336565136327E+23
Mtp:     0.2093419563202777E+24
PDE 2003  7  7 23 59 17.78  34.0745 -118.3792   6.4 4.2 4.2 FICTITIOUS
event name:     9903873
time shift:     0.1621702046282680E+01
half duration:   0
latitude:       34.1600445071720700
longitude:     -118.5695225014490000
depth:       20.4269026324769500
Mrr:     0.3412882314639515E+24
Mtt:    -0.2843675104460338E+24
Mpp:    -0.5692072101791762E+23
Mrt:    -0.7837960927950275E+23
Mrp:    -0.1187228412186285E+23
Mtp:     0.1343923670204252E+24
PDE 2003  7  7 23 59 17.78  34.0745 -118.3792   6.4 4.2 4.2 FICTITIOUS
event name:     9903873
time shift:     0.5258434800315681E+01
half duration:   0
latitude:       34.2547298349755100
longitude:     -118.7289055448750000
depth:       19.2402178145941000
Mrr:     0.6563235220460602E+23
Mtt:    -0.5468605970116034E+23
Mpp:    -0.1094629250344570E+23
Mrt:    -0.1507300178451976E+23
Mrp:    -0.2283131561896701E+22
Mtp:     0.2584468596546637E+23
PDE 2003  7  7 23 59 17.78  34.0745 -118.3792   6.4 4.2 4.2 FICTITIOUS
event name:     9903873
time shift:     0.4816256851920003E+01
half duration:   0
latitude:       34.2482945712633400
longitude:     -118.7160239022022000
depth:       19.2402178145941000
Mrr:     0.2362764679365817E+24
Mtt:    -0.1968698149241772E+24
Mpp:    -0.3940665301240452E+23
Mrt:    -0.5426280642427112E+23
Mrp:    -0.8219273622828122E+22
Mtp:     0.9304086947567894E+23
PDE 2003  7  7 23 59 17.78  34.0745 -118.3792   6.4 4.2 4.2 FICTITIOUS
event name:     9903873
time shift:     0.4377583805791629E+01
half duration:   0
latitude:       34.2418578876634000
longitude:     -118.7031441837860000
depth:       19.2402178145941000
Mrr:     0.2887823497002665E+24
Mtt:    -0.2406186626851055E+24
Mpp:    -0.4816368701516107E+23
Mrt:    -0.6632120785188694E+23
Mrp:    -0.1004577887234548E+23
Mtp:     0.1137166182480521E+24
PDE 2003  7  7 23 59 17.78  34.0745 -118.3792   6.4 4.2 4.2 FICTITIOUS
event name:     9903873
time shift:     0.3943427384715522E+01
half duration:   0
latitude:       34.2354197851309600
longitude:     -118.6902663895758000
depth:       19.2402178145941000
Mrr:     0.3741044075662543E+24
Mtt:    -0.3117105402966140E+24
Mpp:    -0.6239386726964047E+23
Mrt:    -0.8591611017176262E+23
Mrp:    -0.1301384990281119E+23
Mtp:     0.1473147100031584E+24
PDE 2003  7  7 23 59 17.78  34.0745 -118.3792   6.4 4.2 4.2 FICTITIOUS
event name:     9903873
time shift:     0.3515211762383118E+01
half duration:   0
latitude:       34.2289802646214300
longitude:     -118.6773905195203000
depth:       19.2402178145941000
Mrr:     0.1155129398801066E+25
Mtt:    -0.9624746507404220E+24
Mpp:    -0.1926547480606443E+24
Mrt:    -0.2652848314075478E+24
Mrp:    -0.4018311548938193E+23
Mtp:     0.4548664729922082E+24
PDE 2003  7  7 23 59 17.78  34.0745 -118.3792   6.4 4.2 4.2 FICTITIOUS
event name:     9903873
time shift:     0.3094993970354786E+01
half duration:   0
latitude:       34.2225393270903800
longitude:     -118.6645165735676000
depth:       19.2402178145941000
Mrr:     0.8335308729984965E+24
Mtt:    -0.6945129582047362E+24
Mpp:    -0.1390179147937604E+24
Mrt:    -0.1914271226634009E+24
Mrp:    -0.2899577083608810E+23
Mtp:     0.3282275117614230E+24
PDE 2003  7  7 23 59 17.78  34.0745 -118.3792   6.4 4.2 4.2 FICTITIOUS
event name:     9903873
time shift:     0.2685828889492063E+01
half duration:   0
latitude:       34.2160969734934800
longitude:     -118.6516445516651000
depth:       19.2402178145941000
Mrr:     0.5775646994005330E+24
Mtt:    -0.4812373253702110E+24
Mpp:    -0.9632737403032214E+23
Mrt:    -0.1326424157037739E+24
Mrp:    -0.2009155774469097E+23
Mtp:     0.2274332364961041E+24
PDE 2003  7  7 23 59 17.78  34.0745 -118.3792   6.4 4.2 4.2 FICTITIOUS
event name:     9903873
time shift:     0.2292384862741355E+01
half duration:   0
latitude:       34.2096532047865100
longitude:     -118.6387744537595000
depth:       19.2402178145941000
Mrr:     0.4594264654322422E+24
Mtt:    -0.3828024179081224E+24
Mpp:    -0.7662404752411990E+23
Mrt:    -0.1055110124916383E+24
Mrp:    -0.1598192093327690E+23
Mtp:     0.1809128017582647E+24
PDE 2003  7  7 23 59 17.78  34.0745 -118.3792   6.4 4.2 4.2 FICTITIOUS
event name:     9903873
time shift:     0.1921983354308436E+01
half duration:   0
latitude:       34.2032080219254300
longitude:     -118.6259062797967000
depth:       19.2402178145941000
Mrr:     0.6628867572665210E+24
Mtt:    -0.5523292029817194E+24
Mpp:    -0.1105575542848016E+24
Mrt:    -0.1522373180236496E+24
Mrp:    -0.2305962877515667E+23
Mtp:     0.2610313282512104E+24
PDE 2003  7  7 23 59 17.78  34.0745 -118.3792   6.4 4.2 4.2 FICTITIOUS
event name:     9903873
time shift:     0.1586280968666477E+01
half duration:   0
latitude:       34.1967614258662600
longitude:     -118.6130400297221000
depth:       19.2402178145941000
Mrr:     0.2953455849207272E+24
Mtt:    -0.2460872686552215E+24
Mpp:    -0.4925831626550564E+23
Mrt:    -0.6782850803033890E+23
Mrp:    -0.1027409202853515E+23
Mtp:     0.1163010868445986E+24
PDE 2003  7  7 23 59 17.78  34.0745 -118.3792   6.4 4.2 4.2 FICTITIOUS
event name:     9903873
time shift:     0.1303568396196909E+01
half duration:   0
latitude:       34.1903134175651700
longitude:     -118.6001757034803000
depth:       19.2402178145941000
Mrr:     0.1968970566138181E+24
Mtt:    -0.1640581791034810E+24
Mpp:    -0.3283887751033710E+23
Mrt:    -0.4521900535355928E+23
Mrp:    -0.6849394685690101E+22
Mtp:     0.7753405789639912E+23
PDE 2003  7  7 23 59 17.78  34.0745 -118.3792   6.4 4.2 4.2 FICTITIOUS
event name:     9903873
time shift:     0.1100232961574502E+01
half duration:   0
latitude:       34.1838639979784900
longitude:     -118.5873133010151000
depth:       19.2402178145941000
Mrr:     0.2034602918342787E+24
Mtt:    -0.1695267850735970E+24
Mpp:    -0.3393350676068167E+23
Mrt:    -0.4672630553201125E+23
Mrp:    -0.7077707841879771E+22
Mtp:     0.8011852649294574E+23
PDE 2003  7  7 23 59 17.78  34.0745 -118.3792   6.4 4.2 4.2 FICTITIOUS
event name:     9903873
time shift:     0.1006396550168597E+01
half duration:   0
latitude:       34.1774131680626100
longitude:     -118.5744528222700000
depth:       19.2402178145941000
Mrr:     0.8532205786598786E+23
Mtt:    -0.7109187761150844E+23
Mpp:    -0.1423018025447941E+23
Mrt:    -0.1959490231987569E+23
Mrp:    -0.2968071030465711E+22
Mtp:     0.3359809175510629E+23
PDE 2003  7  7 23 59 17.78  34.0745 -118.3792   6.4 4.2 4.2 FICTITIOUS
event name:     9903873
time shift:     0.1040768573617092E+01
half duration:   0
latitude:       34.1709609287740500
longitude:     -118.5615942671874000
depth:       19.2402178145941000
Mrr:     0.3478514666844121E+24
Mtt:    -0.2898361164161499E+24
Mpp:    -0.5801535026826221E+23
Mrt:    -0.7988690945795474E+23
Mrp:    -0.1210059727805251E+23
Mtp:     0.1369768356169718E+24
PDE 2003  7  7 23 59 17.78  34.0745 -118.3792   6.4 4.2 4.2 FICTITIOUS
event name:     9903873
time shift:     0.5128894707219357E+01
half duration:   0
latitude:       34.2656560511417700
longitude:     -118.7209899690512000
depth:       18.0535329967112600
Mrr:     0.2690926440388847E+24
Mtt:    -0.2242128447747573E+24
Mpp:    -0.4487979926412738E+23
Mrt:    -0.6179930731653102E+23
Mrp:    -0.9360839403776470E+22
Mtp:     0.1059632124584121E+24
PDE 2003  7  7 23 59 17.78  34.0745 -118.3792   6.4 4.2 4.2 FICTITIOUS
event name:     9903873
time shift:     0.4675904077364595E+01
half duration:   0
latitude:       34.2592199984367100
longitude:     -118.7081071899264000
depth:       18.0535329967112600
Mrr:     0.3609779371253331E+24
Mtt:    -0.3007733283563819E+24
Mpp:    -0.6020460876895134E+23
Mrt:    -0.8290150981485867E+23
Mrp:    -0.1255722359043186E+23
Mtp:     0.1421457728100651E+24
PDE 2003  7  7 23 59 17.78  34.0745 -118.3792   6.4 4.2 4.2 FICTITIOUS
event name:     9903873
time shift:     0.4224528622297787E+01
half duration:   0
latitude:       34.2527825256816500
longitude:     -118.6952263364527000
depth:       18.0535329967112600
Mrr:     0.2756558792593453E+24
Mtt:    -0.2296814507448734E+24
Mpp:    -0.4597442851447194E+23
Mrt:    -0.6330660749498297E+23
Mrp:    -0.9589152559966142E+22
Mtp:     0.1085476810549588E+24
PDE 2003  7  7 23 59 17.78  34.0745 -118.3792   6.4 4.2 4.2 FICTITIOUS
event name:     9903873
time shift:     0.3775266421373954E+01
half duration:   0
latitude:       34.2463436338322300
longitude:     -118.6823474085791000
depth:       18.0535329967112600
Mrr:     0.2887823497002665E+24
Mtt:    -0.2406186626851055E+24
Mpp:    -0.4816368701516107E+23
Mrt:    -0.6632120785188694E+23
Mrp:    -0.1004577887234548E+23
Mtp:     0.1137166182480521E+24
PDE 2003  7  7 23 59 17.78  34.0745 -118.3792   6.4 4.2 4.2 FICTITIOUS
event name:     9903873
time shift:     0.3328839523386893E+01
half duration:   0
latitude:       34.2399033238442400
longitude:     -118.6694704062540000
depth:       18.0535329967112600
Mrr:     0.6628867572665210E+24
Mtt:    -0.5523292029817194E+24
Mpp:    -0.1105575542848016E+24
Mrt:    -0.1522373180236496E+24
Mrp:    -0.2305962877515667E+23
Mtp:     0.2610313282512104E+24
PDE 2003  7  7 23 59 17.78  34.0745 -118.3792   6.4 4.2 4.2 FICTITIOUS
event name:     9903873
time shift:     0.2886332259970240E+01
half duration:   0
latitude:       34.2334615966735900
longitude:     -118.6565953294250000
depth:       18.0535329967112600
Mrr:     0.3347249962434907E+24
Mtt:    -0.2788989044759177E+24
Mpp:    -0.5582609176757306E+23
Mrt:    -0.7687230910105075E+23
Mrp:    -0.1164397096567317E+23
Mtp:     0.1318078984238785E+24
PDE 2003  7  7 23 59 17.78  34.0745 -118.3792   6.4 4.2 4.2 FICTITIOUS
event name:     9903873
time shift:     0.2449442455754453E+01
half duration:   0
latitude:       34.2270184532763200
longitude:     -118.6437221780390000
depth:       18.0535329967112600
Mrr:     0.4397367597708603E+24
Mtt:    -0.3663965999977743E+24
Mpp:    -0.7334015977308617E+23
Mrt:    -0.1009891119562824E+24
Mrp:    -0.1529698146470790E+23
Mtp:     0.1731593959686247E+24
PDE 2003  7  7 23 59 17.78  34.0745 -118.3792   6.4 4.2 4.2 FICTITIOUS
event name:     9903873
time shift:     0.2020963516541846E+01
half duration:   0
latitude:       34.2205738946085800
longitude:     -118.6308509520423000
depth:       18.0535329967112600
Mrr:     0.6760132277074422E+24
Mtt:    -0.5632664149219514E+24
Mpp:    -0.1127468127854907E+24
Mrt:    -0.1552519183805535E+24
Mrp:    -0.2351625508753602E+23
Mtp:     0.2662002654443036E+24
PDE 2003  7  7 23 59 17.78  34.0745 -118.3792   6.4 4.2 4.2 FICTITIOUS
event name:     9903873
time shift:     0.1605766682940842E+01
half duration:   0
latitude:       34.2141279216266900
longitude:     -118.6179816513804000
depth:       18.0535329967112600
Mrr:     0.1109186752257842E+25
Mtt:    -0.9241944089496097E+24
Mpp:    -0.1849923433082323E+24
Mrt:    -0.2547337301583839E+24
Mrp:    -0.3858492339605423E+23
Mtp:     0.4367751928163817E+24
PDE 2003  7  7 23 59 17.78  34.0745 -118.3792   6.4 4.2 4.2 FICTITIOUS
event name:     9903873
time shift:     0.1212919493132806E+01
half duration:   0
latitude:       34.2076805352870400
longitude:     -118.6051142759982000
depth:       18.0535329967112600
Mrr:     0.3806676427867150E+24
Mtt:    -0.3171791462667300E+24
Mpp:    -0.6348849651998505E+23
Mrt:    -0.8742341035021457E+23
Mrp:    -0.1324216305900087E+23
Mtp:     0.1498991785997050E+24
PDE 2003  7  7 23 59 17.78  34.0745 -118.3792   6.4 4.2 4.2 FICTITIOUS
event name:     9903873
time shift:     0.8603702420607629E+00
half duration:   0
latitude:       34.2012317365461600
longitude:     -118.5922488258398000
depth:       18.0535329967112600
Mrr:     0.8269676377780357E+24
Mtt:    -0.6890443522346202E+24
Mpp:    -0.1379232855434158E+24
Mrt:    -0.1899198224849490E+24
Mrp:    -0.2876745767989843E+23
Mtp:     0.3256430431648763E+24
PDE 2003  7  7 23 59 17.78  34.0745 -118.3792   6.4 4.2 4.2 FICTITIOUS
event name:     9903873
time shift:     0.5841683129374550E+00
half duration:   0
latitude:       34.1947815263607200
longitude:     -118.5793853008488000
depth:       18.0535329967112600
Mrr:     0.1161692634021527E+25
Mtt:    -0.9679432567105376E+24
Mpp:    -0.1937493773109889E+24
Mrt:    -0.2667921315859997E+24
Mrp:    -0.4041142864557160E+23
Mtp:     0.4574509415887547E+24
PDE 2003  7  7 23 59 17.78  34.0745 -118.3792   6.4 4.2 4.2 FICTITIOUS
event name:     9903873
time shift:     0.4456649833645755E+00
half duration:   0
latitude:       34.1883299056874900
longitude:     -118.5665237009679000
depth:       18.0535329967112600
Mrr:     0.2625294088184241E+23
Mtt:    -0.2187442388046414E+23
Mpp:    -0.4378517001378279E+22
Mrt:    -0.6029200713807904E+22
Mrp:    -0.9132526247586802E+21
Mtp:     0.1033787438618655E+23
PDE 2003  7  7 23 59 17.78  34.0745 -118.3792   6.4 4.2 4.2 FICTITIOUS
event name:     9903873
time shift:     0.4974804794243564E+00
half duration:   0
latitude:       34.1818768754833600
longitude:     -118.5536640261393000
depth:       18.0535329967112600
Mrr:     0.9667140615490741E+00
Mtt:    -0.8054835931983215E+00
Mpp:    -0.1612304683507525E+00
Mrt:    -0.2220137216692187E+00
Mrp:    -0.3362877165169079E-01
Mtp:     0.3806723437436539E+00
PDE 2003  7  7 23 59 17.78  34.0745 -118.3792   6.4 4.2 4.2 FICTITIOUS
event name:     9903873
time shift:     0.5063438629982526E+01
half duration:   0
latitude:       34.2765817990204000
longitude:     -118.7130723842533000
depth:       16.8668481788284200
Mrr:     0.5644382289596117E+24
Mtt:    -0.4703001134299790E+24
Mpp:    -0.9413811552963300E+23
Mrt:    -0.1296278153468699E+24
Mrp:    -0.1963493143231163E+23
Mtp:     0.2222642993030108E+24
PDE 2003  7  7 23 59 17.78  34.0745 -118.3792   6.4 4.2 4.2 FICTITIOUS
event name:     9903873
time shift:     0.4604771824468570E+01
half duration:   0
latitude:       34.2701449567649700
longitude:     -118.7001884687288000
depth:       16.8668481788284200
Mrr:     0.7875882264552725E+24
Mtt:    -0.6562327164139240E+24
Mpp:    -0.1313555100413484E+24
Mrt:    -0.1808760214142371E+24
Mrp:    -0.2739757874276041E+23
Mtp:     0.3101362315855965E+24
PDE 2003  7  7 23 59 17.78  34.0745 -118.3792   6.4 4.2 4.2 FICTITIOUS
event name:     9903873
time shift:     0.4146659873325454E+01
half duration:   0
latitude:       34.2637066942974300
longitude:     -118.6873064802508000
depth:       16.8668481788284200
Mrr:     0.4988058767550058E+24
Mtt:    -0.4156140537288186E+24
Mpp:    -0.8319182302618730E+23
Mrt:    -0.1145548135623502E+24
Mrp:    -0.1735179987041493E+23
Mtp:     0.1964196133375445E+24
PDE 2003  7  7 23 59 17.78  34.0745 -118.3792   6.4 4.2 4.2 FICTITIOUS
event name:     9903873
time shift:     0.3689279895127308E+01
half duration:   0
latitude:       34.2572670125738200
longitude:     -118.6744264187679000
depth:       16.8668481788284200
Mrr:     0.3872308780071755E+24
Mtt:    -0.3226477522368459E+24
Mpp:    -0.6458312577032962E+23
Mrt:    -0.8893071052866656E+23
Mrp:    -0.1347047621519053E+23
Mtp:     0.1524836471962516E+24
PDE 2003  7  7 23 59 17.78  34.0745 -118.3792   6.4 4.2 4.2 FICTITIOUS
event name:     9903873
time shift:     0.3232892838609166E+01
half duration:   0
latitude:       34.2508259125502700
longitude:     -118.6615482842278000
depth:       16.8668481788284200
Mrr:     0.5381852880777694E+24
Mtt:    -0.4484256895495147E+24
Mpp:    -0.8975959852825475E+23
Mrt:    -0.1235986146330621E+24
Mrp:    -0.1872167880755294E+23
Mtp:     0.2119264249168243E+24
PDE 2003  7  7 23 59 17.78  34.0745 -118.3792   6.4 4.2 4.2 FICTITIOUS
event name:     9903873
time shift:     0.2777899272285389E+01
half duration:   0
latitude:       34.2443833951830700
longitude:     -118.6486720765779000
depth:       16.8668481788284200
Mrr:     0.1968970566138181E+24
Mtt:    -0.1640581791034810E+24
Mpp:    -0.3283887751033710E+23
Mrt:    -0.4521900535355928E+23
Mrp:    -0.6849394685690101E+22
Mtp:     0.7753405789639912E+23
PDE 2003  7  7 23 59 17.78  34.0745 -118.3792   6.4 4.2 4.2 FICTITIOUS
event name:     9903873
time shift:     0.2324945994209348E+01
half duration:   0
latitude:       34.2379394614286200
longitude:     -118.6357977957645000
depth:       16.8668481788284200
Mrr:     0.4200470541094786E+24
Mtt:    -0.3499907820874262E+24
Mpp:    -0.7005627202205246E+23
Mrt:    -0.9646721142092646E+23
Mrp:    -0.1461204199613889E+23
Mtp:     0.1654059901789848E+24
PDE 2003  7  7 23 59 17.78  34.0745 -118.3792   6.4 4.2 4.2 FICTITIOUS
event name:     9903873
time shift:     0.1875146112985191E+01
half duration:   0
latitude:       34.2314941122434500
longitude:     -118.6229254417334000
depth:       16.8668481788284200
Mrr:     0.4922426415345453E+24
Mtt:    -0.4101454477587025E+24
Mpp:    -0.8209719377584275E+23
Mrt:    -0.1130475133838982E+24
Mrp:    -0.1712348671422526E+23
Mtp:     0.1938351447409978E+24
PDE 2003  7  7 23 59 17.78  34.0745 -118.3792   6.4 4.2 4.2 FICTITIOUS
event name:     9903873
time shift:     0.1430579703955690E+01
half duration:   0
latitude:       34.2250473485841900
longitude:     -118.6100550144299000
depth:       16.8668481788284200
Mrr:     0.9057264604235632E+24
Mtt:    -0.7546676238760126E+24
Mpp:    -0.1510588365475507E+24
Mrt:    -0.2080074246263727E+24
Mrp:    -0.3150721555417448E+23
Mtp:     0.3566566663234360E+24
PDE 2003  7  7 23 59 17.78  34.0745 -118.3792   6.4 4.2 4.2 FICTITIOUS
event name:     9903873
time shift:     0.9955832614620970E+00
half duration:   0
latitude:       34.2185991714076400
longitude:     -118.5971865137983000
depth:       16.8668481788284200
Mrr:     0.1017301459171394E+25
Mtt:    -0.8476339253679851E+24
Mpp:    -0.1696675338034083E+24
Mrt:    -0.2336315276600563E+24
Mrp:    -0.3538853920939886E+23
Mtp:     0.4005926324647287E+24
PDE 2003  7  7 23 59 17.78  34.0745 -118.3792   6.4 4.2 4.2 FICTITIOUS
event name:     9903873
time shift:     0.5806378499832413E+00
half duration:   0
latitude:       34.2121495816706900
longitude:     -118.5843199397823000
depth:       16.8668481788284200
Mrr:     0.1194508810123830E+25
Mtt:    -0.9952862865611180E+24
Mpp:    -0.1992225235627117E+24
Mrt:    -0.2743286324782596E+24
Mrp:    -0.4155299442651995E+23
Mtp:     0.4703732845714881E+24
PDE 2003  7  7 23 59 17.78  34.0745 -118.3792   6.4 4.2 4.2 FICTITIOUS
event name:     9903873
time shift:     0.2162882981351467E+00
half duration:   0
latitude:       34.2056985803303500
longitude:     -118.5714552923250000
depth:       16.8668481788284200
Mrr:     0.1758947039083441E+25
Mtt:    -0.1465586399991097E+25
Mpp:    -0.2933606390923447E+24
Mrt:    -0.4039564478251296E+24
Mrp:    -0.6118792585883159E+23
Mtp:     0.6926375838744987E+24
PDE 2003  7  7 23 59 17.78  34.0745 -118.3792   6.4 4.2 4.2 FICTITIOUS
event name:     9903873
time shift:   0
half duration:   0
latitude:       34.1992461683437600
longitude:     -118.5585925713688000
depth:       16.8668481788284200
Mrr:     0.4134838188890179E+24
Mtt:    -0.3445221761173101E+24
Mpp:    -0.6896164277170789E+23
Mrt:    -0.9495991124247450E+23
Mrp:    -0.1438372883994922E+23
Mtp:     0.1628215215824382E+24
PDE 2003  7  7 23 59 17.78  34.0745 -118.3792   6.4 4.2 4.2 FICTITIOUS
event name:     9903873
time shift:     0.8553545665913543E-01
half duration:   0
latitude:       34.1927923466681800
longitude:     -118.5457317768553000
depth:       16.8668481788284200
Mrr:     0.9667140615490741E+00
Mtt:    -0.8054835931983215E+00
Mpp:    -0.1612304683507525E+00
Mrt:    -0.2220137216692187E+00
Mrp:    -0.3362877165169079E-01
Mtp:     0.3806723437436539E+00
PDE 2003  7  7 23 59 17.78  34.0745 -118.3792   6.4 4.2 4.2 FICTITIOUS
event name:     9903873
time shift:     0.5064282335774037E+01
half duration:   0
latitude:       34.2875070779809600
longitude:     -118.7051527890251000
depth:       15.6801633609455800
Mrr:     0.2428397031570423E+24
Mtt:    -0.2023384208942933E+24
Mpp:    -0.4050128226274909E+23
Mrt:    -0.5577010660272310E+23
Mrp:    -0.8447586779017792E+22
Mtp:     0.9562533807222557E+23
PDE 2003  7  7 23 59 17.78  34.0745 -118.3792   6.4 4.2 4.2 FICTITIOUS
event name:     9903873
time shift:     0.4605689638710754E+01
half duration:   0
latitude:       34.2810694456175300
longitude:     -118.6922677371540000
depth:       15.6801633609455800
Mrr:     0.6235073459437570E+24
Mtt:    -0.5195175671610231E+24
Mpp:    -0.1039897787827341E+24
Mrt:    -0.1431935169529377E+24
Mrp:    -0.2168974983801866E+23
Mtp:     0.2455245166719306E+24
PDE 2003  7  7 23 59 17.78  34.0745 -118.3792   6.4 4.2 4.2 FICTITIOUS
event name:     9903873
time shift:     0.4147665949877710E+01
half duration:   0
latitude:       34.2746303928800400
longitude:     -118.6793846137253000
depth:       15.6801633609455800
Mrr:     0.7022661685892846E+24
Mtt:    -0.5851408388024155E+24
Mpp:    -0.1171253297868690E+24
Mrt:    -0.1612811190943614E+24
Mrp:    -0.2442950771229470E+23
Mtp:     0.2765381398304902E+24
PDE 2003  7  7 23 59 17.78  34.0745 -118.3792   6.4 4.2 4.2 FICTITIOUS
event name:     9903873
time shift:     0.3690392824158659E+01
half duration:   0
latitude:       34.2681899207248900
longitude:     -118.6665034186874000
depth:       15.6801633609455800
Mrr:     0.5972544050619149E+24
Mtt:    -0.4976431432805590E+24
Mpp:    -0.9961126178135586E+23
Mrt:    -0.1371643162391298E+24
Mrp:    -0.2077649721325998E+23
Mtp:     0.2351866422857441E+24
PDE 2003  7  7 23 59 17.78  34.0745 -118.3792   6.4 4.2 4.2 FICTITIOUS
event name:     9903873
time shift:     0.3234137688914083E+01
half duration:   0
latitude:       34.2617480301085700
longitude:     -118.6536241519874000
depth:       15.6801633609455800
Mrr:     0.5775646994005330E+24
Mtt:    -0.4812373253702110E+24
Mpp:    -0.9632737403032214E+23
Mrt:    -0.1326424157037739E+24
Mrp:    -0.2009155774469097E+23
Mtp:     0.2274332364961041E+24
PDE 2003  7  7 23 59 17.78  34.0745 -118.3792   6.4 4.2 4.2 FICTITIOUS
event name:     9903873
time shift:     0.2779310937195639E+01
half duration:   0
latitude:       34.2553047219877300
longitude:     -118.6407468135723000
depth:       15.6801633609455800
Mrr:     0.2100235270547393E+24
Mtt:    -0.1749953910437131E+24
Mpp:    -0.3502813601102623E+23
Mrt:    -0.4823360571046323E+23
Mrp:    -0.7306020998069442E+22
Mtp:     0.8270299508949237E+23
PDE 2003  7  7 23 59 17.78  34.0745 -118.3792   6.4 4.2 4.2 FICTITIOUS
event name:     9903873
time shift:     0.2326574954807733E+01
half duration:   0
latitude:       34.2488599973191600
longitude:     -118.6278714033880000
depth:       15.6801633609455800
Mrr:     0.5578749937391512E+24
Mtt:    -0.4648315074598629E+24
Mpp:    -0.9304348627928842E+23
Mrt:    -0.1281205151684179E+24
Mrp:    -0.1940661827612195E+23
Mtp:     0.2196798307064642E+24
PDE 2003  7  7 23 59 17.78  34.0745 -118.3792   6.4 4.2 4.2 FICTITIOUS
event name:     9903873
time shift:     0.1877068970317598E+01
half duration:   0
latitude:       34.2424138570597200
longitude:     -118.6149979213799000
depth:       15.6801633609455800
Mrr:     0.7022661685892846E+24
Mtt:    -0.5851408388024155E+24
Mpp:    -0.1171253297868690E+24
Mrt:    -0.1612811190943614E+24
Mrp:    -0.2442950771229470E+23
Mtp:     0.2765381398304902E+24
PDE 2003  7  7 23 59 17.78  34.0745 -118.3792   6.4 4.2 4.2 FICTITIOUS
event name:     9903873
time shift:     0.1432919786718972E+01
half duration:   0
latitude:       34.2359663021664300
longitude:     -118.6021263674927000
depth:       15.6801633609455800
Mrr:     0.8335308729984965E+24
Mtt:    -0.6945129582047362E+24
Mpp:    -0.1390179147937604E+24
Mrt:    -0.1914271226634009E+24
Mrp:    -0.2899577083608810E+23
Mtp:     0.3282275117614230E+24
PDE 2003  7  7 23 59 17.78  34.0745 -118.3792   6.4 4.2 4.2 FICTITIOUS
event name:     9903873
time shift:     0.9985538779589614E+00
half duration:   0
latitude:       34.2295173335964400
longitude:     -118.5892567416704000
depth:       15.6801633609455800
Mrr:     0.1371716161076266E+25
Mtt:    -0.1142938647754251E+25
Mpp:    -0.2287775133220151E+24
Mrt:    -0.3150257372964630E+24
Mrp:    -0.4771744964364102E+23
Mtp:     0.5401539366782471E+24
PDE 2003  7  7 23 59 17.78  34.0745 -118.3792   6.4 4.2 4.2 FICTITIOUS
event name:     9903873
time shift:     0.5846354351861382E+00
half duration:   0
latitude:       34.2230669523070100
longitude:     -118.5763890438562000