PDE 2001  9  9 23 59 17.78  34.0745 -118.3792   6.4 4.2 4.2 Hollywood
event name:     9703873
time shift:      0.0000
half duration:   1.0000
latitude:       34.0745
longitude:    -118.3792
depth:           5.4000
Mrr:       1.000000E+22
Mtt:      -1.000000E+22 
Mpp:       0.000000E+22
Mrt:       0.000000E+22
Mrp:       0.000000E+22
Mtp:       0.000000E+22
