# example parameter file for the Pyrized verion of Specfem 3D Basin


######################################################################
[Specfem3DBasin]                                  ; general parameters

# model (SoCal, Harvard_LA, Min_Chen_anisotropy)
model = Harvard_LA


######################################################################
[Specfem3DBasin.mesher]                            ; mesher parameters

# coordinates of mesh block (latitude/longitude) and depth
latitude-min   = 32.2
latitude-max   = 36.8
longitude-min  = -120.3
longitude-max  = -114.7
depth-block    = 60.0*km

utm-projection-zone      = 11
suppress-utm-projection  = False

# number of elements at the surface along edges of the mesh at the surface
# (must be 8 * multiple of NPROC below if mesh is not regular and contains mesh doublings)
# (must be multiple of NPROC below if mesh is regular)
nex-xi   = 288
nex-eta  = 288

# number of MPI processors along xi and eta (can be different)
nproc-xi   = 12
nproc-eta  = 12

# save AVS or OpenDX mesh files to check the mesh
save-files = True


######################################################################
[Specfem3DBasin.model]                              ; model parameters

# parameters describing the model
oceans                 = True
topography             = True
attenuation            = True
use-olsen-attenuation  = False


######################################################################
[Specfem3DBasin.solver]                            ; solver parameters

# 'forward', 'adjoint', or 'both'
simulation-type = forward

# save last frame of forward simulation or not
save-forward = False

# record length
record-length = 180.0*second

# absorbing boundary conditions for a regional simulation
absorbing-conditions = True

# save AVS or OpenDX movies
movie-surface          = False
movie-volume           = False
ntstep-between-frames  = 200
create-shakemap        = False
save-displacement      = False
use-highres-for-movies = False
hdur-movie             = 0.0

# interval at which we output time step info and max of norm of displacement
ntstep-between-output-info = 100

# interval in time steps for writing of seismograms
ntstep-between-output-seismos = 200000

# print source time function
print-source-time-function = False


# end of file
